&share
 wrf_core         = 'ARW',
 max_dom          =     3,
 start_date       = '2021-09-07_12:00:00', '2021-09-07_12:00:00', '2021-09-07_12:00:00',
 end_date         = '2021-09-09_00:00:00', '2021-09-09_00:00:00', '2021-09-09_00:00:00',
 interval_seconds = 10800,
/
